/*--------------------------------*- C++ -*----------------------------------*\
| =========                 |                                                 |
| \\      /  F ield         | OpenFOAM: The Open Source CFD Toolbox           |
|  \\    /   O peration     | Version:  2.3.0                                 |
|   \\  /    A nd           | Web:      www.OpenFOAM.org                      |
|    \\/     M anipulation  |                                                 |
\*---------------------------------------------------------------------------*/
FoamFile
{
    version     2.0;
    format      ascii;
    class       dictionary;
    location    "constant";
    object      modelCoefficients;
}

/*
Baseline values
CEPSS2	   1.92;
CMU 	     0.09;
CEPS1      1.44; //implicit through definition for Ceps1
sigmaEps   1.3;  //gives kappa=0.4327
sigmaK	   1.0;
*/
// * * * * * * * * * * * * * * * * * * * * * * * * * * * * * * * * * * * * * //
Ceps2              	1.92;
Cmu              	0.09;
Sigmak                  1.0;
Kappa              	0.43266615305567874;

// ************************************************************************* //
