/*--------------------------------*- C++ -*----------------------------------*\
| =========                 |                                                 |
| \\      /  F ield         | OpenFOAM: The Open Source CFD Toolbox           |
|  \\    /   O peration     | Version:  1.7.0                                 |
|   \\  /    A nd           | Web:      www.OpenFOAM.com                      |
|    \\/     M anipulation  |                                                 |
\*---------------------------------------------------------------------------*/
FoamFile
{
    version     2.0;
    format      ascii;
    class       dictionary;
    location    "system";
    object      fvSchemes;
}
// * * * * * * * * * * * * * * * * * * * * * * * * * * * * * * * * * * * * * //

ddtSchemes
{
    default         steadyState;
}

gradSchemes
{
    default         Gauss linear;
}

divSchemes
{
    default         none;
    div(phi,U)      bounded Gauss upwind;// grad(U);
    div(phi,nuTilda) bounded Gauss upwind;// grad(nuTilda);
    div((nuEff*dev(T(grad(U))))) Gauss linear;

    //default         Gauss upwind;//linear;
    //div(phi,U)      Gauss upwind;//Gauss linear;
    //div(phi,k)      Gauss upwind;//Gauss linear;
    //div(phi,omega)  Gauss upwind;//Gauss linear;
    //div(phi,nuTilda) bounded Gauss linearUpwind grad(nuTilda);
    //div((nuEff*dev(T(grad(U))))) Gauss linear;
      //default         none;
      //div(phi,U)      bounded Gauss linearUpwind;
      //div(phi,k)      Gauss upwind;
      //div(phi,epsilon) Gauss upwind;
      //div(phi,omega) Gauss upwind;
      //div(phi,R)      Gauss upwind;
      //div(R)          Gauss linear;
      //div(phi,nuTilda) bounded Gauss linearUpwind;
      //div((nuEff*dev(grad(U).T()))) Gauss linear;
  	  //div((nuEff*dev(T(grad(U))))) bounded Gauss linearUpwind;
}

laplacianSchemes
{
    default           Gauss linear corrected;
    //laplacian(nuEff,U) Gauss linear corrected;
    //laplacian((1|A(U)),p) Gauss linear corrected;
    //laplacian(DkEff,k) Gauss linear corrected;
    //laplacian(DepsilonEff,epsilon) Gauss linear corrected;
    //laplacian(DomegaEff,omega) Gauss linear corrected;
    //laplacian(DREff,R) Gauss linear corrected;
    //laplacian(DnuTildaEff,nuTilda) Gauss linear corrected;
}

interpolationSchemes
{
    default         linear;
    //interpolate(U)  linear;
}

snGradSchemes
{
    default         corrected;
}

fluxRequired
{
    default         no;
    p               ;
}


// ************************************************************************* //
