/*--------------------------------*- C++ -*----------------------------------*\
| =========                 |                                                 |
| \\      /  F ield         | OpenFOAM: The Open Source CFD Toolbox           |
|  \\    /   O peration     | Version:  2.3.0                                 |
|   \\  /    A nd           | Web:      www.OpenFOAM.org                      |
|    \\/     M anipulation  |                                                 |
\*---------------------------------------------------------------------------*/
FoamFile
{
    version     2.0;
    format      ascii;
    class       dictionary;
    location    "constant";
    object      modelCoefficients;
}

/*
Baseline values
CEPSS2	   1.92;
CMU 	     0.09;
CEPS1      1.44; //implicit through definition for Ceps1
sigmaEps   1.3;  //gives kappa=0.4327
sigmaK	   1.0;
*/
// * * * * * * * * * * * * * * * * * * * * * * * * * * * * * * * * * * * * * //
Sigma       0.66666;
Kappa       0.41;
Cb1         0.1355;
Cb2         0.622;
Cw2         0.3;
Cw3         2.0;
Cv1         7.1;
// ************************************************************************* //
