/*--------------------------------*- C++ -*----------------------------------*\
| =========                 |                                                 |
| \\      /  F ield         | OpenFOAM: The Open Source CFD Toolbox           |
|  \\    /   O peration     | Version:  1.7.0                                 |
|   \\  /    A nd           | Web:      www.OpenFOAM.com                      |
|    \\/     M anipulation  |                                                 |
\*---------------------------------------------------------------------------*/
FoamFile
{
    version     2.0;
    format      ascii;
    class       dictionary;
    object      blockMeshDict;
}
// * * * * * * * * * * * * * * * * * * * * * * * * * * * * * * * * * * * * * //

y       0.0436193874;//np.sin(2.5*np.pi/180)
ym      -0.0436193874;
z       0.9990482216;
l       400.0;
radius  1.0;

convertToMeters 0.022;//1;

vertices
(
    (0.0  0.0  0.0)
    ($l   0.0  0.0)
    (0.0  $ym  $z)
    ($l   $ym  $z)
    ($l   $y   $z)
    (0.0  $y   $z)
);

blocks
(
    hex (0 1 1 0 2 3 4 5) (100 1 100) simpleGrading (1 1 0.01)    //mesh01
    //hex (0 1 1 0 2 3 4 5) (100 1 100) simpleGrading (1 1 0.01)  //mesh02
    //hex (0 1 1 0 2 3 4 5) (100 1 100) simpleGrading (1 1 0.01)  //mesh03
);

edges
(
	arc 2 5 (0  0 $radius)
	arc 3 4 ($l 0 $radius)
);

patches
(
	patch
	inlet
	(
		(0 2 5 0)
	)

	patch
	outlet
	(
		(1 3 4 1)
	)

	wedge
	axi_symm-f
	(
		(0 1 3 2)
	)

	wedge
	axi_symm-r
	(
		(0 1 4 5)
	)

	wall
	wall
	(
		(2 3 4 5)
	)
);

mergePatchPairs
(
);

// ************************************************************************* //
