/*--------------------------------*- C++ -*----------------------------------*\
| =========                 |                                                 |
| \\      /  F ield         | OpenFOAM: The Open Source CFD Toolbox           |
|  \\    /   O peration     | Version:  2.3.0                                 |
|   \\  /    A nd           | Web:      www.OpenFOAM.org                      |
|    \\/     M anipulation  |                                                 |
\*---------------------------------------------------------------------------*/
FoamFile
{
    version     2.0;
    format      ascii;
    class       polyBoundaryMesh;
    location    "constant/polyMesh";
    object      boundary;
}
// * * * * * * * * * * * * * * * * * * * * * * * * * * * * * * * * * * * * * //

6
(
    inlet
    {
        type            patch;
        nFaces          100;
        startFace       19800;
    }
    outlet
    {
        type            patch;
        nFaces          100;
        startFace       19900;
    }
    axi_symm-f
    {
        type            wedge;
        inGroups        1(wedge);
        nFaces          10000;
        startFace       20000;
    }
    axi_symm-r
    {
        type            wedge;
        inGroups        1(wedge);
        nFaces          10000;
        startFace       30000;
    }
    wall
    {
        type            wall;
        inGroups        1(wall);
        nFaces          100;
        startFace       40000;
    }
    defaultFaces
    {
        type            empty;
        inGroups        1(empty);
        nFaces          0;
        startFace       40100;
    }
)

// ************************************************************************* //
